LTspice 24.1.5 for Windows
Circuit: Z:\home\evans\Downloads\distortion.net
Start Time: Wed Apr  9 23:29:07 2025
solver = Normal
Maximum thread count: 2
tnom = 27
temp = 27
method = modified trap
Direct Newton iteration for .op point succeeded.
Total elapsed time: 0.311 seconds.

Files loaded:
Z:\home\evans\Downloads\distortion.net
C:\users\evans\AppData\Local\LTspice\lib\cmp\standard.dio
C:\users\evans\AppData\Local\LTspice\lib\cmp\standard.bjt
C:\users\evans\AppData\Local\LTspice\lib\sub\UniversalOpAmp1.lib

