LTspice 24.0.12 for Windows
Circuit: * Z:\home\evans\Downloads\Draft1.asc
Start Time: Mon Mar  3 02:07:54 2025
solver = Normal
Maximum thread count: 2
tnom = 27
temp = 27
method = modified trap
.OP point found by inspection.
Total elapsed time: 0.119 seconds.

